CPDS_validation_cosim/Distribution/Bus11/DSSfiles/ieee13nodecktpositive_VLN_Node.Txt

LINE-GROUND and LINE-LINE VOLTAGES BY BUS & NODE

Bus       Node    VLN (kV)   Angle      pu     Base kV    Node-Node   VLL (kV)  Angle      pu

SOURCEBUS 1       66.387 /_   30.0   0.99987   115.000
RG60 .... 1       2.4012 /_   30.0   0.99975     4.160
632 ..... 1       2.3149 /_   27.7   0.96382     4.160
670 ..... 1       2.2954 /_   27.1   0.95572     4.160
671 ..... 1       2.2612 /_   25.9   0.94146     4.160
680 ..... 1       2.2612 /_   25.9   0.94146     4.160
633 ..... 1       2.3086 /_   27.7   0.96121     4.160
645 ..... 1        2.306 /_   27.7   0.96013     4.160
646 ..... 1       2.3032 /_   27.7   0.95895     4.160
692 ..... 1        2.261 /_   25.9    0.9414     4.160
675 ..... 1       2.2559 /_   25.8   0.93927     4.160
684 ..... 1       2.2582 /_   25.9   0.94021     4.160
611 ..... 1       2.2566 /_   25.8   0.93954     4.160
652 ..... 1       2.2539 /_   25.9   0.93843     4.160
634 ..... 1      0.26048 /_   27.1   0.93991     0.480
650 ..... 1       2.4014 /_   30.0   0.99985     4.160
